tests/data/power_flow/pandapower/components/asymmetric/line/asym_output.json
{
  "version": "1.0",
  "type": "asym_output",
  "is_batch": false,
  "attributes": {},
  "data": {
    "asym_load": [
      {
        "id": 9,
        "p": [
          10000.0,
          9000.0,
          8000.0
        ],
        "q": [
          2000.0,
          1519.9999999999998,
          1000.0
        ]
      }
    ],
    "line": [
      {
        "id": 3,
        "p_from": [
          10013.449151275032,
          9013.545175913314,
          8013.704976920892
        ],
        "q_from": [
          -44183.30349728233,
          -44664.31437904536,
          -45185.29930997558
        ],
        "p_to": [
          -10002.730474875714,
          -9002.702975273703,
          -8002.701070086296
        ],
        "q_to": [
          32644.89778974039,
          33125.89872786074,
          33646.90175161841
        ]
      },
      {
        "id": 6,
        "p_from": [
          10002.503704441773,
          9002.476200568382,
          8002.474291011049
        ],
        "q_from": [
          -21096.108092266782,
          -21576.891500900456,
          -22097.671976905407
        ],
        "p_to": [
          -10000.226742660863,
          -9000.226789381093,
          -8000.226814799019
        ],
        "q_to": [
          9549.14411713729,
          10029.579217345363,
          10550.02434666041
        ]
      },
      {
        "id": 7,
        "p_from": [
          0.22677068984274487,
          0.22677496122649096,
          0.22677933114717724
        ],
        "q_from": [
          -11548.78969726049,
          -11549.007226747157,
          -11549.22977449989
        ],
        "p_to": [
          -4.265011141136711e-08,
          -4.265047626787768e-08,
          -4.265045763571933e-08
        ],
        "q_to": [
          -2.8411902997709522e-08,
          -2.8411518657207115e-08,
          -2.8412061388767562e-08
        ]
      },
      {
        "id": 8,
        "p_from": [
          -4.266181329280263e-08,
          -4.266331345604111e-08,
          -4.266416173347648e-08
        ],
        "q_from": [
          -4.2618335607073664e-08,
          -4.26192478114737e-08,
          -4.262135815304642e-08
        ],
        "p_to": [
          0.22677764726667307,
          0.2267861892023035,
          0.22679492835261136
        ],
        "q_to": [
          -11549.144201166057,
          -11549.57921783062,
          -11550.02427798368
        ]
      },
      {
        "id": 10,
        "p_from": [
          0.0,
          0.0,
          0.0
        ],
        "q_from": [
          0.0,
          0.0,
          0.0
        ],
        "p_to": [
          0.0,
          0.0,
          0.0
        ],
        "q_to": [
          0.0,
          0.0,
          0.0
        ]
      }
    ],
    "node": [
      {
        "id": 1,
        "u_pu": [
          1.0,
          0.9999999999999999,
          0.9999999999999999
        ],
        "u": [
          6062.177826491071,
          6062.17782649107,
          6062.17782649107
        ],
        "u_angle": [
          -3.120916463588467e-17,
          -2.0943951023931953,
          2.0943951023931953
        ]
      },
      {
        "id": 2,
        "u_pu": [
          1.000140968579307,
          1.000150387710347,
          1.000160024042914
        ],
        "u": [
          6063.032403086779,
          6063.089503534115,
          6063.14792069573
        ],
        "u_angle": [
          -0.00031574723846294634,
          -2.0947086775127275,
          2.0940834271834676
        ]
      },
      {
        "id": 5,
        "u_pu": [
          1.0001563187231832,
          1.0001751547755033,
          1.0001944253398605
        ],
        "u": [
          6063.1254583886175,
          6063.239645887332,
          6063.356467475281
        ],
        "u_angle": [
          -0.00047436543357409625,
          -2.0948651195028436,
          2.093928889261308
        ]
      }
    ]
  }
}
